# generated using pymatgen
data_C
_symmetry_space_group_name_H-M   'P 1'
_cell_length_a   10.24840442
_cell_length_b   10.90326115
_cell_length_c   10.12338498
_cell_angle_alpha   85.14594486
_cell_angle_beta   89.94632440
_cell_angle_gamma   91.11063539
_symmetry_Int_Tables_number   1
_chemical_formula_structural   C
_chemical_formula_sum   C100
_cell_volume   1126.92486506
_cell_formula_units_Z   100
loop_
 _symmetry_equiv_pos_site_id
 _symmetry_equiv_pos_as_xyz
  1  'x, y, z'
loop_
 _atom_site_type_symbol
 _atom_site_label
 _atom_site_symmetry_multiplicity
 _atom_site_fract_x
 _atom_site_fract_y
 _atom_site_fract_z
 _atom_site_occupancy
  C  C0  1  0.88069460  0.10694320  0.22603637  1
  C  C1  1  0.72172416  0.05499239  0.91085560  1
  C  C2  1  0.86916301  0.79983937  0.01025903  1
  C  C3  1  0.92378281  0.82226209  0.12770330  1
  C  C4  1  0.33607448  0.46227624  0.46397579  1
  C  C5  1  0.90216394  0.75481429  0.61664826  1
  C  C6  1  0.73713841  0.59387112  0.64660675  1
  C  C7  1  0.87359221  0.22927010  0.79218855  1
  C  C8  1  0.45284510  0.65623622  0.76872965  1
  C  C9  1  0.91127557  0.18792303  0.66660261  1
  C  C10  1  0.26435380  0.67283088  0.91120698  1
  C  C11  1  0.11193938  0.04394709  0.97609970  1
  C  C12  1  0.37237767  0.61700025  0.25990947  1
  C  C13  1  0.34508371  0.06297111  0.26958975  1
  C  C14  1  0.80964250  0.38620813  0.56108173  1
  C  C15  1  0.58177003  0.30216747  0.23956682  1
  C  C16  1  0.25746288  0.70781158  0.04608627  1
  C  C17  1  0.40968010  0.16149232  0.18702881  1
  C  C18  1  0.23052160  0.26535662  0.41004054  1
  C  C19  1  0.03961916  0.61413049  0.38265643  1
  C  C20  1  0.92523634  0.54073436  0.35430435  1
  C  C21  1  0.30222389  0.45875347  0.83069382  1
  C  C22  1  0.87085704  0.80670200  0.49455369  1
  C  C23  1  0.67966392  0.17634186  0.91681720  1
  C  C24  1  0.58161469  0.83015744  0.24739458  1
  C  C25  1  0.29238202  0.34419889  0.50548648  1
  C  C26  1  0.66735347  0.54100389  0.07561525  1
  C  C27  1  0.26645288  0.08506202  0.73049405  1
  C  C28  1  0.86134191  0.55932321  0.23289352  1
  C  C29  1  0.78692243  0.82326700  0.90733300  1
  C  C30  1  0.38379183  0.38813461  0.74642481  1
  C  C31  1  0.22457704  0.37560474  0.04467689  1
  C  C32  1  0.11989386  0.07522781  0.76612281  1
  C  C33  1  0.23293726  0.31674074  0.27981452  1
  C  C34  1  0.35857878  0.57938348  0.87895532  1
  C  C35  1  0.37317245  0.93194928  0.28800103  1
  C  C36  1  0.45207290  0.83357011  0.28638915  1
  C  C37  1  0.48505016  0.78890426  0.79224144  1
  C  C38  1  0.07020049  0.99806157  0.10321408  1
  C  C39  1  0.76846998  0.55059674  0.15035836  1
  C  C40  1  0.08629237  0.11044396  0.53025049  1
  C  C41  1  0.25245974  0.90342837  0.36301497  1
  C  C42  1  0.82640904  0.16070979  0.33150590  1
  C  C43  1  0.74476287  0.94642364  0.89982786  1
  C  C44  1  0.58322806  0.44415407  0.88348133  1
  C  C45  1  0.62704055  0.38447674  0.33754314  1
  C  C46  1  0.65634549  0.55354289  0.56129009  1
  C  C47  1  0.66373437  0.38132031  0.77725445  1
  C  C48  1  0.79701364  0.69563608  0.70531417  1
  C  C49  1  0.36766787  0.55435744  0.54746345  1
  C  C50  1  0.69881806  0.82566095  0.22509774  1
  C  C51  1  0.34950788  0.63187883  0.12422735  1
  C  C52  1  0.32371868  0.30970443  0.64578945  1
  C  C53  1  0.81011417  0.23435451  0.43239847  1
  C  C54  1  0.02941915  0.11436137  0.64781242  1
  C  C55  1  0.66091842  0.23341537  0.15319081  1
  C  C56  1  0.14548493  0.84315028  0.90471320  1
  C  C57  1  0.07466642  0.20396394  0.15591943  1
  C  C58  1  0.37807400  0.72013064  0.35414098  1
  C  C59  1  0.44629570  0.28581914  0.22471181  1
  C  C60  1  0.86920707  0.82882507  0.37113156  1
  C  C61  1  0.33589868  0.43404990  0.09483626  1
  C  C62  1  0.54376953  0.48275421  0.36817926  1
  C  C63  1  0.59634132  0.19046176  0.03473548  1
  C  C64  1  0.13554254  0.73274472  0.70700018  1
  C  C65  1  0.23809520  0.77493633  0.38420200  1
  C  C66  1  0.85906849  0.44572683  0.43398441  1
  C  C67  1  0.12102080  0.96549342  0.87288254  1
  C  C68  1  0.17566779  0.13386850  0.43579621  1
  C  C69  1  0.72724673  0.45346526  0.65178238  1
  C  C70  1  0.16268873  0.29495753  0.15801586  1
  C  C71  1  0.07555487  0.14621566  0.88755085  1
  C  C72  1  0.75252111  0.36214817  0.39987285  1
  C  C73  1  0.03205548  0.74367793  0.64684999  1
  C  C74  1  0.45350851  0.65641574  0.48082522  1
  C  C75  1  0.58777906  0.71791758  0.80867279  1
  C  C76  1  0.16238488  0.80406413  0.04478144  1
  C  C77  1  0.56673940  0.57337282  0.45553352  1
  C  C78  1  0.00909291  0.09742832  0.16772753  1
  C  C79  1  0.76772213  0.17232508  0.20505629  1
  C  C80  1  0.35502727  0.39015526  0.23756041  1
  C  C81  1  0.06567268  0.86790013  0.12407289  1
  C  C82  1  0.41385945  0.53774174  0.02525502  1
  C  C83  1  0.41684402  0.63433450  0.62907476  1
  C  C84  1  0.83586358  0.82705688  0.24109274  1
  C  C85  1  0.48201699  0.13732682  0.07884517  1
  C  C86  1  0.56594383  0.51006078  0.00027225  1
  C  C87  1  0.40075519  0.48926505  0.32437276  1
  C  C88  1  0.84661738  0.25085993  0.56110299  1
  C  C89  1  0.42542331  0.89989745  0.76780365  1
  C  C90  1  0.19154313  0.74767438  0.82811692  1
  C  C91  1  0.21768243  0.38690341  0.90729841  1
  C  C92  1  0.96797068  0.21807606  0.88976085  1
  C  C93  1  0.31059004  0.19465804  0.69098879  1
  C  C94  1  0.73568090  0.26553715  0.82714718  1
  C  C95  1  0.35063276  0.98496581  0.74415874  1
  C  C96  1  0.12932986  0.69081398  0.39165433  1
  C  C97  1  0.73160258  0.73730843  0.81047629  1
  C  C98  1  0.51418457  0.38896098  0.78999837  1
  C  C99  1  0.23630320  0.04270306  0.35840264  1
