# generated using pymatgen
data_C
_symmetry_space_group_name_H-M   'P 1'
_cell_length_a   10.20551605
_cell_length_b   10.41973572
_cell_length_c   10.53784401
_cell_angle_alpha   91.36441172
_cell_angle_beta   93.48189678
_cell_angle_gamma   89.61530556
_symmetry_Int_Tables_number   1
_chemical_formula_structural   C
_chemical_formula_sum   C100
_cell_volume   1118.18021372
_cell_formula_units_Z   100
loop_
 _symmetry_equiv_pos_site_id
 _symmetry_equiv_pos_as_xyz
  1  'x, y, z'
loop_
 _atom_site_type_symbol
 _atom_site_label
 _atom_site_symmetry_multiplicity
 _atom_site_fract_x
 _atom_site_fract_y
 _atom_site_fract_z
 _atom_site_occupancy
  C  C0  1  0.02002359  0.72901087  0.74481851  1
  C  C1  1  0.95553589  0.66796894  0.64579464  1
  C  C2  1  0.37661588  0.46369559  0.72629328  1
  C  C3  1  0.74940924  0.28983733  0.86756970  1
  C  C4  1  0.88980193  0.70026407  0.95675538  1
  C  C5  1  0.26114941  0.97901534  0.62647654  1
  C  C6  1  0.79809062  0.35051761  0.43157055  1
  C  C7  1  0.18868590  0.20406338  0.87338593  1
  C  C8  1  0.20848406  0.71559171  0.10589247  1
  C  C9  1  0.21285115  0.90297578  0.25621956  1
  C  C10  1  0.92123583  0.21882738  0.59946693  1
  C  C11  1  0.87830808  0.34010880  0.55313459  1
  C  C12  1  0.42793358  0.99340384  0.44630996  1
  C  C13  1  0.50631559  0.08380905  0.38298250  1
  C  C14  1  0.42886330  0.44259708  0.86123884  1
  C  C15  1  0.12438770  0.60410220  0.90906537  1
  C  C16  1  0.84286419  0.87826867  0.27986581  1
  C  C17  1  0.02118730  0.05333678  0.20386998  1
  C  C18  1  0.39720697  0.98970838  0.57420190  1
  C  C19  1  0.90790338  0.95109405  0.77245490  1
  C  C20  1  0.09900207  0.84325893  0.71438125  1
  C  C21  1  0.46300976  0.79115318  0.77476982  1
  C  C22  1  0.55339352  0.33203368  0.64510860  1
  C  C23  1  0.44987592  0.87827170  0.00818019  1
  C  C24  1  0.25252163  0.50457537  0.72719834  1
  C  C25  1  0.86665701  0.61777138  0.19262380  1
  C  C26  1  0.22607080  0.29946751  0.34177883  1
  C  C27  1  0.89451142  0.38381843  0.31244385  1
  C  C28  1  0.09592240  0.97318961  0.31107220  1
  C  C29  1  0.14964983  0.02692288  0.53994956  1
  C  C30  1  0.07621593  0.00058383  0.08663742  1
  C  C31  1  0.82891680  0.98798909  0.34854503  1
  C  C32  1  0.66415264  0.81655321  0.92886271  1
  C  C33  1  0.51583721  0.55803142  0.17065578  1
  C  C34  1  0.08488781  0.82943124  0.94829806  1
  C  C35  1  0.02343355  0.70966495  0.88842001  1
  C  C36  1  0.02245578  0.02019032  0.57509676  1
  C  C37  1  0.65688923  0.23298178  0.80368190  1
  C  C38  1  0.52591608  0.52237871  0.91125154  1
  C  C39  1  0.33359435  0.84502163  0.94909173  1
  C  C40  1  0.23059139  0.87326028  0.71534292  1
  C  C41  1  0.86051171  0.47317109  -0.00498257  1
  C  C42  1  0.86242600  0.56850860  0.42932671  1
  C  C43  1  0.57373902  0.87483418  0.00062420  1
  C  C44  1  0.17261814  0.54393801  0.80843591  1
  C  C45  1  0.58813019  0.20148123  0.39748096  1
  C  C46  1  0.17391395  0.06129977  0.40419738  1
  C  C47  1  0.14257185  0.65390785  0.30243479  1
  C  C48  1  0.96210091  0.39758031  0.64623762  1
  C  C49  1  0.25228226  0.36272576  0.00768961  1
  C  C50  1  0.37315916  0.07160201  0.67217485  1
  C  C51  1  0.82260191  0.37219922  0.93475731  1
  C  C52  1  0.74180675  0.48425472  0.42514228  1
  C  C53  1  0.24046226  0.48183720  0.08614151  1
  C  C54  1  0.81722202  0.75251828  0.23467414  1
  C  C55  1  0.42519859  0.48756706  0.24724627  1
  C  C56  1  0.91569553  0.10773677  0.52796420  1
  C  C57  1  0.19025528  0.59515412  0.03817193  1
  C  C58  1  0.00000951  0.94783102  0.68577644  1
  C  C59  1  0.02670157  0.18523765  0.25985122  1
  C  C60  1  0.32603530  0.23134734  0.84211106  1
  C  C61  1  0.62312569  0.51337067  0.36434118  1
  C  C62  1  0.57892707  0.74870920  0.82738393  1
  C  C63  1  0.30454499  0.00251445  0.35164993  1
  C  C64  1  0.34101724  0.82673245  0.80379533  1
  C  C65  1  0.87489702  0.59243070  0.04765484  1
  C  C66  1  0.29536332  0.47290003  0.21715118  1
  C  C67  1  0.35181245  0.34508122  0.91748413  1
  C  C68  1  0.94712568  0.28559889  0.25779196  1
  C  C69  1  0.95495743  0.96238038  0.28490110  1
  C  C70  1  0.21266783  0.83093921  0.02402315  1
  C  C71  1  0.48910321  0.30430847  0.36941455  1
  C  C72  1  0.16275277  0.26071493  0.99826833  1
  C  C73  1  0.80872849  0.80581260  0.93394864  1
  C  C74  1  0.91079038  0.62784829  0.53616260  1
  C  C75  1  0.20183683  0.74839669  0.23862813  1
  C  C76  1  0.53962124  0.23416919  0.73167819  1
  C  C77  1  0.81226367  0.10036718  0.42984385  1
  C  C78  1  0.61496421  0.60112476  0.25668824  1
  C  C79  1  0.50839033  0.43326795  0.34895374  1
  C  C80  1  0.09128848  0.53443397  0.30831123  1
  C  C81  1  0.49354284  0.45208005  0.65232453  1
  C  C82  1  0.38430519  0.11636696  0.31644274  1
  C  C83  1  0.58141821  0.24614528  0.09395496  1
  C  C84  1  0.93499094  0.52707673  0.30651408  1
  C  C85  1  0.09271762  0.22087610  0.78486163  1
  C  C86  1  0.54451311  0.49354110  0.04746329  1
  C  C87  1  0.40809682  0.17429932  0.75291205  1
  C  C88  1  0.00818525  0.27047157  0.70262207  1
  C  C89  1  0.72382274  0.21388049  0.41418064  1
  C  C90  1  0.57155569  0.55398347  0.69461727  1
  C  C91  1  0.19363871  0.42786889  0.29772090  1
  C  C92  1  0.13908703  0.19542754  0.35195224  1
  C  C93  1  0.57990844  0.60759933  0.81287442  1
  C  C94  1  0.36105546  0.24764618  0.33542407  1
  C  C95  1  0.19272331  0.93824759  0.11752812  1
  C  C96  1  0.01177825  0.93548509  0.97441981  1
  C  C97  1  0.88673832  0.92018876  0.89181785  1
  C  C98  1  0.56057739  0.36448520  0.07028301  1
  C  C99  1  0.73087874  0.66057199  0.22582966  1
