# generated using pymatgen
data_C
_symmetry_space_group_name_H-M   'P 1'
_cell_length_a   10.68130859
_cell_length_b   10.74770352
_cell_length_c   10.42721568
_cell_angle_alpha   95.11598674
_cell_angle_beta   86.77443224
_cell_angle_gamma   89.89164312
_symmetry_Int_Tables_number   1
_chemical_formula_structural   C
_chemical_formula_sum   C100
_cell_volume   1190.35322784
_cell_formula_units_Z   100
loop_
 _symmetry_equiv_pos_site_id
 _symmetry_equiv_pos_as_xyz
  1  'x, y, z'
loop_
 _atom_site_type_symbol
 _atom_site_label
 _atom_site_symmetry_multiplicity
 _atom_site_fract_x
 _atom_site_fract_y
 _atom_site_fract_z
 _atom_site_occupancy
  C  C0  1  0.70219640  0.58917076  0.07179875  1
  C  C1  1  0.76746039  0.91667080  0.89816210  1
  C  C2  1  0.52083452  0.60769101  0.76929549  1
  C  C3  1  0.01967159  0.66002239  0.22191729  1
  C  C4  1  0.02039900  0.51671407  0.54386373  1
  C  C5  1  0.11352453  0.53317142  0.44813299  1
  C  C6  1  0.78204276  0.42732547  0.36116979  1
  C  C7  1  0.11502832  0.08490944  0.85191096  1
  C  C8  1  0.35437943  0.27376523  0.68786071  1
  C  C9  1  0.13261369  0.97138540  0.82918489  1
  C  C10  1  0.40637900  0.56572479  0.85004682  1
  C  C11  1  0.01912422  0.41586807  0.75292138  1
  C  C12  1  0.36386260  0.60833237  0.08072715  1
  C  C13  1  0.45939477  0.04688655  0.50580661  1
  C  C14  1  0.76180022  0.03983299  0.86842011  1
  C  C15  1  0.72052687  0.33570787  0.28897559  1
  C  C16  1  0.14428275  0.74655684  0.04806633  1
  C  C17  1  0.23110199  0.80394843  0.95826970  1
  C  C18  1  0.09012346  0.50403963  0.67020453  1
  C  C19  1  0.10908215  0.97617901  0.10951704  1
  C  C20  1  0.22834836  0.68213387  0.65582620  1
  C  C21  1  0.77648786  0.36329658  0.78577201  1
  C  C22  1  0.70498795  0.25570335  0.79318834  1
  C  C23  1  0.40700979  0.19196179  0.21821305  1
  C  C24  1  0.02334740  0.19801931  0.64622331  1
  C  C25  1  0.94161064  0.70403735  0.87422027  1
  C  C26  1  0.89631614  0.49883740  0.34968778  1
  C  C27  1  0.19278127  0.28414147  0.93865120  1
  C  C28  1  0.75667361  0.87543119  0.01956951  1
  C  C29  1  0.55053757  0.51912441  0.44342860  1
  C  C30  1  0.45075486  0.46153448  0.37866399  1
  C  C31  1  0.52506670  0.60520503  0.92227121  1
  C  C32  1  0.28476087  0.29236713  0.03773815  1
  C  C33  1  0.06308775  0.73033646  0.81373162  1
  C  C34  1  0.57444175  0.55988274  0.04529299  1
  C  C35  1  0.96867447  0.77814813  0.26715115  1
  C  C36  1  0.73716246  0.80572715  0.10916187  1
  C  C37  1  0.75165681  0.14184358  0.82655649  1
  C  C38  1  0.47265627  0.98372446  0.11434601  1
  C  C39  1  0.96225878  0.56040214  0.26607810  1
  C  C40  1  0.78956403  0.03457388  0.37285370  1
  C  C41  1  0.65407672  0.68236787  0.29399293  1
  C  C42  1  0.46698458  0.55249538  0.13501555  1
  C  C43  1  0.75502795  0.81305462  0.79491254  1
  C  C44  1  0.57940396  0.01721750  0.47196488  1
  C  C45  1  0.40180573  0.66651587  0.96309405  1
  C  C46  1  0.27534628  0.34931255  0.51864094  1
  C  C47  1  0.91384587  0.65191019  0.98579256  1
  C  C48  1  0.63598529  0.49251635  0.55366351  1
  C  C49  1  0.19975980  0.52789566  0.36555895  1
  C  C50  1  0.10818165  0.86939466  0.02198239  1
  C  C51  1  0.93950151  0.88408652  0.30984200  1
  C  C52  1  0.36816320  0.35391660  0.41622260  1
  C  C53  1  0.01899271  0.08049907  0.41660781  1
  C  C54  1  0.10981698  0.21651734  0.86219456  1
  C  C55  1  0.39625527  0.22758018  0.35851086  1
  C  C56  1  0.27351748  0.38786237  0.94604750  1
  C  C57  1  0.82005282  0.70369443  0.81460408  1
  C  C58  1  0.90116486  0.50500117  0.49653667  1
  C  C59  1  0.25191866  0.04894616  0.41512226  1
  C  C60  1  0.28363886  0.53631262  0.26205046  1
  C  C61  1  0.13767467  0.66371333  0.13871110  1
  C  C62  1  0.70361618  0.70129362  0.17002382  1
  C  C63  1  0.26594940  0.92958767  0.44065984  1
  C  C64  1  0.32380562  0.45777433  0.84977765  1
  C  C65  1  0.27415895  0.74912337  0.57509671  1
  C  C66  1  0.01179794  0.13904912  0.54203346  1
  C  C67  1  0.57643293  0.25351082  0.77027438  1
  C  C68  1  0.54632011  0.85473884  0.65340257  1
  C  C69  1  0.77064219  0.57846303  0.84355520  1
  C  C70  1  0.60756511  0.12060454  0.27062875  1
  C  C71  1  0.50049237  0.08757761  0.19135843  1
  C  C72  1  0.65972528  0.23855559  0.26948946  1
  C  C73  1  0.02965271  0.27579727  0.76584395  1
  C  C74  1  0.54037244  0.73521030  0.71387336  1
  C  C75  1  0.64469694  0.80833924  0.72419073  1
  C  C76  1  0.12341647  0.64207828  0.72726720  1
  C  C77  1  0.28892779  0.82864334  0.48656377  1
  C  C78  1  0.13428346  0.06976397  0.34615739  1
  C  C79  1  0.13173080  0.02812414  0.21535513  1
  C  C80  1  0.25153683  0.59918081  0.15323908  1
  C  C81  1  0.80171936  0.58310379  0.97827773  1
  C  C82  1  0.41393944  0.50933305  0.25797359  1
  C  C83  1  0.31428863  0.23149021  0.56770033  1
  C  C84  1  0.76389445  0.46451793  0.49606597  1
  C  C85  1  0.42542007  0.89689520  0.04294839  1
  C  C86  1  0.61712835  0.51754286  0.68709751  1
  C  C87  1  0.60454543  0.61434692  0.37135581  1
  C  C88  1  0.13025855  0.84764869  0.87297408  1
  C  C89  1  0.52167280  0.95010041  0.57316680  1
  C  C90  1  0.66653537  0.04695065  0.36862495  1
  C  C91  1  0.22373640  0.43582256  0.63017005  1
  C  C92  1  0.91225649  0.36297843  0.79000040  1
  C  C93  1  0.35842052  0.13466474  0.46249350  1
  C  C94  1  0.71781469  0.48419109  0.76874664  1
  C  C95  1  0.36541014  0.80424926  0.97533469  1
  C  C96  1  0.34307492  0.24553743  0.13012976  1
  C  C97  1  0.29524288  0.39771600  0.72495313  1
  C  C98  1  0.46701171  0.24354905  0.74003547  1
  C  C99  1  0.91062742  0.00710094  0.36421668  1
