# generated using pymatgen
data_Cu3(BO3)2
_symmetry_space_group_name_H-M   'P 1'
_cell_length_a   8.59992400
_cell_length_b   9.30717059
_cell_length_c   18.14657082
_cell_angle_alpha   94.81830945
_cell_angle_beta   90.00000000
_cell_angle_gamma   90.00000000
_symmetry_Int_Tables_number   1
_chemical_formula_structural   Cu3(BO3)2
_chemical_formula_sum   'Cu36 B24 O72'
_cell_volume   1447.33601859
_cell_formula_units_Z   12
loop_
 _symmetry_equiv_pos_site_id
 _symmetry_equiv_pos_as_xyz
  1  'x, y, z'
loop_
 _atom_site_type_symbol
 _atom_site_label
 _atom_site_symmetry_multiplicity
 _atom_site_fract_x
 _atom_site_fract_y
 _atom_site_fract_z
 _atom_site_occupancy
  Cu  Cu0  1  0.78825800  0.14347400  0.09305400  1
  Cu  Cu1  1  0.28825800  0.35652700  0.90694600  1
  Cu  Cu2  1  0.20999900  0.84198400  0.90346900  1
  Cu  Cu3  1  0.70999900  0.65801600  0.09653100  1
  Cu  Cu4  1  0.48860800  0.33270100  0.44140600  1
  Cu  Cu5  1  0.98860800  0.16729900  0.55859400  1
  Cu  Cu6  1  0.51148900  0.66728800  0.55850900  1
  Cu  Cu7  1  0.01148900  0.83271200  0.44149100  1
  Cu  Cu8  1  0.24587800  0.78054600  0.26109000  1
  Cu  Cu9  1  0.74587800  0.71945400  0.73891000  1
  Cu  Cu10  1  0.75414500  0.21946000  0.73893800  1
  Cu  Cu11  1  0.25414500  0.28054000  0.26106200  1
  Cu  Cu12  1  0.90550900  0.75603500  0.25385100  1
  Cu  Cu13  1  0.40550900  0.74396500  0.74614900  1
  Cu  Cu14  1  0.09439600  0.24414700  0.74646300  1
  Cu  Cu15  1  0.59439600  0.25585300  0.25353700  1
  Cu  Cu16  1  0.17705800  0.15433000  0.05224700  1
  Cu  Cu17  1  0.67705800  0.34567000  0.94775300  1
  Cu  Cu18  1  0.82303500  0.83535600  0.94309700  1
  Cu  Cu19  1  0.32303500  0.66464400  0.05690300  1
  Cu  Cu20  1  0.10224800  0.41419200  0.43577600  1
  Cu  Cu21  1  0.60224800  0.08580800  0.56422400  1
  Cu  Cu22  1  0.89782800  0.58595000  0.56433100  1
  Cu  Cu23  1  0.39782800  0.91405000  0.43566900  1
  Cu  Cu24  1  0.41963700  0.02529200  0.14852300  1
  Cu  Cu25  1  0.91963700  0.47470800  0.85147700  1
  Cu  Cu26  1  0.58062600  0.97120000  0.85084500  1
  Cu  Cu27  1  0.08062600  0.52880000  0.14915500  1
  Cu  Cu28  1  0.57585800  0.77355700  0.26847900  1
  Cu  Cu29  1  0.07585800  0.72644300  0.73152100  1
  Cu  Cu30  1  0.42411300  0.22639300  0.73167000  1
  Cu  Cu31  1  0.92411300  0.27360700  0.26833000  1
  Cu  Cu32  1  0.73803400  0.49763000  0.36406100  1
  Cu  Cu33  1  0.23803400  0.00237000  0.63593900  1
  Cu  Cu34  1  0.26164500  0.50149600  0.63520700  1
  Cu  Cu35  1  0.76164500  0.99850400  0.36479300  1
  B  B36  1  0.80934500  0.27560200  0.47720800  1
  B  B37  1  0.30934500  0.22439800  0.52279200  1
  B  B38  1  0.19084700  0.72438900  0.52267800  1
  B  B39  1  0.69084700  0.77561100  0.47732200  1
  B  B40  1  0.75838900  0.01240900  0.20713400  1
  B  B41  1  0.25838900  0.48759100  0.79286600  1
  B  B42  1  0.24177800  0.98824100  0.79411300  1
  B  B43  1  0.74177800  0.51175900  0.20588700  1
  B  B44  1  0.06024800  0.98337600  0.17183100  1
  B  B45  1  0.56024800  0.51662400  0.82816900  1
  B  B46  1  0.93974400  0.01579800  0.82792900  1
  B  B47  1  0.43974400  0.48420200  0.17207100  1
  B  B48  1  0.08582100  0.52495000  0.31238200  1
  B  B49  1  0.58582100  0.97505000  0.68761800  1
  B  B50  1  0.91423200  0.47506200  0.68757900  1
  B  B51  1  0.41423200  0.02493800  0.31242100  1
  B  B52  1  0.99628900  0.28838300  0.98227600  1
  B  B53  1  0.49628900  0.21161700  0.01772400  1
  B  B54  1  0.00152600  0.69748900  0.01254500  1
  B  B55  1  0.50152600  0.80251100  0.98745500  1
  B  B56  1  0.38397000  0.55833700  0.34910200  1
  B  B57  1  0.88397000  0.94166300  0.65089800  1
  B  B58  1  0.61607800  0.44165100  0.65079100  1
  B  B59  1  0.11607800  0.05834900  0.34920900  1
  O  O60  1  0.91026000  0.04080000  0.16515900  1
  O  O61  1  0.41026000  0.45920000  0.83484100  1
  O  O62  1  0.08977600  0.95978200  0.83582400  1
  O  O63  1  0.58977700  0.54021800  0.16417600  1
  O  O64  1  0.07529200  0.67396700  0.30121400  1
  O  O65  1  0.57529200  0.82603300  0.69878600  1
  O  O66  1  0.92486900  0.32587800  0.69848200  1
  O  O67  1  0.42486900  0.17412200  0.30151800  1
  O  O68  1  0.18538600  0.04045700  0.13703700  1
  O  O69  1  0.68538600  0.45954300  0.86296300  1
  O  O70  1  0.81437900  0.95719600  0.86189300  1
  O  O71  1  0.31437900  0.54280400  0.13810700  1
  O  O72  1  0.74010300  0.86261400  0.21741100  1
  O  O73  1  0.24010300  0.63738600  0.78258900  1
  O  O74  1  0.26006800  0.13753200  0.78285500  1
  O  O75  1  0.76006800  0.36246800  0.21714500  1
  O  O76  1  0.64012200  0.06821100  0.15854100  1
  O  O77  1  0.14012200  0.43178900  0.84145900  1
  O  O78  1  0.35903600  0.93320000  0.84341400  1
  O  O79  1  0.85903600  0.56680000  0.15658600  1
  O  O80  1  0.95632200  0.32884900  0.49795900  1
  O  O81  1  0.45632200  0.17115100  0.50204100  1
  O  O82  1  0.04386300  0.67115000  0.50209200  1
  O  O83  1  0.54386300  0.82885000  0.49790800  1
  O  O84  1  0.78006000  0.15521200  0.51563800  1
  O  O85  1  0.28006000  0.34478800  0.48436200  1
  O  O86  1  0.22007000  0.84467400  0.48425600  1
  O  O87  1  0.72007000  0.65532600  0.51574400  1
  O  O88  1  0.76124000  0.11232800  0.27818300  1
  O  O89  1  0.26124000  0.38767200  0.72181700  1
  O  O90  1  0.23913000  0.88802900  0.72283400  1
  O  O91  1  0.73913000  0.61197100  0.27716600  1
  O  O92  1  0.50712700  0.49897900  0.38367400  1
  O  O93  1  0.00712700  0.00102100  0.61632600  1
  O  O94  1  0.49289200  0.50097500  0.61619800  1
  O  O95  1  0.99289200  0.99902500  0.38380200  1
  O  O96  1  0.96404200  0.46854500  0.35951300  1
  O  O97  1  0.46404200  0.03145500  0.64048700  1
  O  O98  1  0.03607700  0.53181300  0.64050600  1
  O  O99  1  0.53607700  0.96818700  0.35949400  1
  O  O100  1  0.07503300  0.86999600  0.21418700  1
  O  O101  1  0.57503300  0.63000400  0.78581300  1
  O  O102  1  0.92491000  0.13003500  0.78604900  1
  O  O103  1  0.42491000  0.36996500  0.21395100  1
  O  O104  1  0.89880200  0.36971600  0.94442100  1
  O  O105  1  0.39880200  0.13028400  0.05557900  1
  O  O106  1  0.10117300  0.62428500  0.05368700  1
  O  O107  1  0.60117300  0.87571500  0.94631300  1
  O  O108  1  0.71299900  0.33217500  0.42820800  1
  O  O109  1  0.21299900  0.16782500  0.57179200  1
  O  O110  1  0.28721800  0.66759300  0.57163400  1
  O  O111  1  0.78721800  0.83240700  0.42836600  1
  O  O112  1  0.40289100  0.67475000  0.30863100  1
  O  O113  1  0.90289100  0.82525000  0.69136900  1
  O  O114  1  0.59710700  0.32515600  0.69127900  1
  O  O115  1  0.09710700  0.17484400  0.30872100  1
  O  O116  1  0.15485000  0.27211600  0.97051800  1
  O  O117  1  0.65485000  0.22788400  0.02948200  1
  O  O118  1  0.84733400  0.73171600  0.02969500  1
  O  O119  1  0.34733400  0.76828400  0.97030500  1
  O  O120  1  0.23492300  0.49861100  0.35607200  1
  O  O121  1  0.73492300  0.00138900  0.64392800  1
  O  O122  1  0.76513900  0.50126000  0.64377800  1
  O  O123  1  0.26513900  0.99874000  0.35622200  1
  O  O124  1  0.08979300  0.42548000  0.24070300  1
  O  O125  1  0.58979300  0.07452000  0.75929700  1
  O  O126  1  0.90973400  0.57475100  0.75906600  1
  O  O127  1  0.40973400  0.92524900  0.24093400  1
  O  O128  1  0.96226700  0.20345600  0.04015300  1
  O  O129  1  0.46226700  0.29654400  0.95984700  1
  O  O130  1  0.03217500  0.75473000  0.94505800  1
  O  O131  1  0.53217500  0.74527000  0.05494200  1
